*KEYWORD
$
$ File created by cubit version 17.1
$...>....1....>....2....>....3....>....4....>....5....>....6....>....7....>....8
*TITLE
$ cubit(а/Комп.прак/10/Задача/src/meshes/krsh/s1.k): 05/03/2021: 22
*PART
Block 1
$    pid     sid     mid   eosid    hgid    grav  adpopt    tmid
       1       1     100       0       0       0       0     100
*SECTION_SHELL
       1
$     t1      t2      t3      t4
       1       1       1       1

*MAT_ELASTIC
     100   7e-06  206800    0.29     0.0     0.0       0
*MAT_THERMAL_ISOTROPIC
     100     0.0     0.0     0.0     0.0     0.0
     500   0.045
*NODE
$    nid               x               y               z      tc      rc
     225        0.337248        0.369139               0       0       0
     226        0.373239        0.332705               0       0       0
     312        0.425538        0.371301               0       0       0
     311        0.389046        0.415343               0       0       0
     227        0.405686        0.292265               0       0       0
     313        0.458273        0.325178               0       0       0
     228        0.433848        0.248548               0       0       0
     314        0.488374        0.276681               0       0       0
     229         0.45847        0.199513               0       0       0
     315        0.514901        0.225075               0       0       0
     230        0.476873        0.150308               0       0       0
     316        0.536102        0.171454               0       0       0
     231        0.489347        0.102661               0       0       0
     317        0.551019        0.116254               0       0       0
     232        0.497192       0.0529125               0       0       0
     318        0.559248       0.0588874               0       0       0
     218             0.5               0               0       0       0
     234        0.560163               0               0       0       0
     319        0.346131        0.455588               0       0       0
     224        0.297127        0.402139               0       0       0
$ ... 359 like lines cut
$
$...>....1....>....2....>....3....>....4....>....5....>....6....>....7....>....8
$    eid     pid      n1      n2      n3      n4      n5      n6      n7      n8
*ELEMENT_SHELL
       1       1     225     226     312     311
       2       1     226     227     313     312
       3       1     227     228     314     313
       4       1     228     229     315     314
       5       1     229     230     316     315
       6       1     230     231     317     316
       7       1     231     232     318     317
       8       1     232     218     234     318
       9       1     225     311     319     224
      10       1     311     321     320     319
      11       1     311     312     322     321
      12       1     312     313     323     322
      13       1     313     314     324     323
      14       1     314     315     325     324
      15       1     315     316     326     325
      16       1     316     317     327     326
      17       1     317     318     328     327
      18       1     318     234     235     328
      19       1     219     220     330     329
      20       1     220     221     331     330
$ ... 311 like lines cut
*END
