*KEYWORD
$
$ File created by cubit version 17.1
$...>....1....>....2....>....3....>....4....>....5....>....6....>....7....>....8
*TITLE
$ cubit(Комп.прак/10/Задача/src_4v/meshes/krsh/s2.k): 05/07/2021: 11
*PART
Block 1
$    pid     sid     mid   eosid    hgid    grav  adpopt    tmid
       1       1     100       0       0       0       0     100
*SECTION_SHELL
       1
$     t1      t2      t3      t4
       1       1       1       1

*MAT_ELASTIC
     100   7e-06  206800    0.29     0.0     0.0       0
*MAT_THERMAL_ISOTROPIC
     100     0.0     0.0     0.0     0.0     0.0
     500   0.045
*NODE
$    nid               x               y               z      tc      rc
    1570        0.485139        0.120997               0       0       0
    1571        0.491261       0.0930758               0       0       0
    1693        0.530075        0.108521               0       0       0
    1692        0.521316        0.140673               0       0       0
    1572        0.495888       0.0639913               0       0       0
    1694        0.536089       0.0737841               0       0       0
    1573        0.498911       0.0329799               0       0       0
    1695        0.538824       0.0373565               0       0       0
    1549             0.5               0               0       0       0
    1575        0.537488               0               0       0       0
    1696        0.509345        0.171825               0       0       0
    1569        0.477439        0.148499               0       0       0
    1698        0.560851        0.164283               0       0       0
    1697        0.542992        0.198861               0       0       0
    1699        0.573208        0.125737               0       0       0
    1700        0.581049       0.0858402               0       0       0
    1701        0.584265       0.0431372               0       0       0
    1576        0.582137               0               0       0       0
    1561        0.345503        0.361425               0       0       0
    1562        0.366855        0.339731               0       0       0
$ ... 771 like lines cut
$
$...>....1....>....2....>....3....>....4....>....5....>....6....>....7....>....8
$    eid     pid      n1      n2      n3      n4      n5      n6      n7      n8
*ELEMENT_SHELL
       1       1    1570    1571    1693    1692
       2       1    1571    1572    1694    1693
       3       1    1572    1573    1695    1694
       4       1    1573    1549    1575    1695
       5       1    1570    1692    1696    1569
       6       1    1692    1698    1697    1696
       7       1    1692    1693    1699    1698
       8       1    1693    1694    1700    1699
       9       1    1694    1695    1701    1700
      10       1    1695    1575    1576    1701
      11       1    1561    1562    1703    1702
      12       1    1562    1563    1704    1703
      13       1    1563    1564    1705    1704
      14       1    1564    1565    1706    1705
      15       1    1565    1566    1707    1706
      16       1    1566    1567    1708    1707
      17       1    1567    1568    1709    1708
      18       1    1568    1569    1696    1709
      19       1    1561    1702    1710    1560
      20       1    1702    1712    1711    1710
$ ... 698 like lines cut
*END
