*KEYWORD
$
$ File created by cubit version 17.1
$...>....1....>....2....>....3....>....4....>....5....>....6....>....7....>....8
*TITLE
$ cubit(±–∞/–ö–æ–º–ø.–ø—Ä–∞–∫/10/–ó–∞–¥–∞—á–∞/src/meshes/test_4.k): 05/04/2021: 10
*PART
Block 1
$    pid     sid     mid   eosid    hgid    grav  adpopt    tmid
       1       1     100       0       0       0       0     100
*SECTION_SHELL
       1
$     t1      t2      t3      t4
       1       1       1       1

*MAT_ELASTIC
     100   7e-06  206800    0.29     0.0     0.0       0
*MAT_THERMAL_ISOTROPIC
     100     0.0     0.0     0.0     0.0     0.0
     500   0.045
*NODE
$    nid               x               y               z      tc      rc
     995            0.25               0               0       0       0
     996        0.241481      -0.0647048               0       0       0
    1140        0.297098      -0.0791037               0       0       0
    1139        0.312001     -0.00631363               0       0       0
     997        0.216506          -0.125               0       0       0
    1141        0.273518       -0.148378               0       0       0
     998        0.176777       -0.176777               0       0       0
    1142        0.236904       -0.228015               0       0       0
     999           0.125       -0.216506               0       0       0
    1143        0.159698       -0.272889               0       0       0
    1000       0.0647048       -0.241481               0       0       0
    1144       0.0852996       -0.318878               0       0       0
    1001     1.53081e-17           -0.25               0       0       0
    1145     -0.00197431       -0.317614               0       0       0
    1002      -0.0647048       -0.241481               0       0       0
    1146      -0.0905899       -0.318352               0       0       0
    1003          -0.125       -0.216506               0       0       0
    1147         -0.1617       -0.267271               0       0       0
    1004       -0.176777       -0.176777               0       0       0
    1148       -0.216284       -0.218805               0       0       0
$ ... 900 like lines cut
$
$...>....1....>....2....>....3....>....4....>....5....>....6....>....7....>....8
$    eid     pid      n1      n2      n3      n4      n5      n6      n7      n8
*ELEMENT_SHELL
       1       1     995     996    1140    1139
       2       1     996     997    1141    1140
       3       1     997     998    1142    1141
       4       1     998     999    1143    1142
       5       1     999    1000    1144    1143
       6       1    1000    1001    1145    1144
       7       1    1001    1002    1146    1145
       8       1    1002    1003    1147    1146
       9       1    1003    1004    1148    1147
      10       1    1004    1005    1149    1148
      11       1    1005    1006    1150    1149
      12       1    1006    1007    1151    1150
      13       1    1007    1008    1152    1151
      14       1    1008    1009    1153    1152
      15       1    1009    1010    1154    1153
      16       1    1010    1011    1155    1154
      17       1    1011    1012    1156    1155
      18       1    1012    1013    1157    1156
      19       1    1013    1014    1158    1157
      20       1    1014    1015    1159    1158
$ ... 828 like lines cut
*END
