*KEYWORD
$
$ File created by cubit version 17.1
$...>....1....>....2....>....3....>....4....>....5....>....6....>....7....>....8
*TITLE
$ cubit(±–∞/–ö–æ–º–ø.–ø—Ä–∞–∫/10/–ó–∞–¥–∞—á–∞/src/meshes/test_5.k): 05/04/2021: 10
*PART
Block 1
$    pid     sid     mid   eosid    hgid    grav  adpopt    tmid
       1       1     100       0       0       0       0     100
*SECTION_SHELL
       1
$     t1      t2      t3      t4
       1       1       1       1

*MAT_ELASTIC
     100   7e-06  206800    0.29     0.0     0.0       0
*MAT_THERMAL_ISOTROPIC
     100     0.0     0.0     0.0     0.0     0.0
     500   0.045
*NODE
$    nid               x               y               z      tc      rc
    1941               1               1               0       0       0
    1943        0.941176               1               0       0       0
    2077        0.940847        0.940902               0       0       0
    2076               1        0.941176               0       0       0
    1944        0.882353               1               0       0       0
    2078        0.881747        0.940564               0       0       0
    1945        0.823529               1               0       0       0
    2079        0.822623        0.940228               0       0       0
    1946        0.764706               1               0       0       0
    2080        0.763566        0.939644               0       0       0
    1947        0.705882               1               0       0       0
    2081        0.704553        0.939043               0       0       0
    1948        0.647059               1               0       0       0
    2082        0.645434        0.938386               0       0       0
    1949        0.588235               1               0       0       0
    2083        0.586454        0.937774               0       0       0
    1950        0.529412               1               0       0       0
    2084        0.527509        0.937899               0       0       0
    1951        0.470588               1               0       0       0
    2085        0.468776        0.938749               0       0       0
$ ... 1123 like lines cut
$
$...>....1....>....2....>....3....>....4....>....5....>....6....>....7....>....8
$    eid     pid      n1      n2      n3      n4      n5      n6      n7      n8
*ELEMENT_SHELL
       1       1    1941    1943    2077    2076
       2       1    1943    1944    2078    2077
       3       1    1944    1945    2079    2078
       4       1    1945    1946    2080    2079
       5       1    1946    1947    2081    2080
       6       1    1947    1948    2082    2081
       7       1    1948    1949    2083    2082
       8       1    1949    1950    2084    2083
       9       1    1950    1951    2085    2084
      10       1    1951    1952    2086    2085
      11       1    1952    1953    2087    2086
      12       1    1953    1954    2088    2087
      13       1    1954    1955    2089    2088
      14       1    1955    1956    2090    2089
      15       1    1956    1957    2091    2090
      16       1    1957    1958    2092    2091
      17       1    1958    1959    2093    2092
      18       1    1959    1960    2094    2093
      19       1    1960    1961    2095    2094
      20       1    1961    1962    2096    2095
$ ... 1042 like lines cut
*END
