*KEYWORD
$
$ File created by cubit version 17.1
$...>....1....>....2....>....3....>....4....>....5....>....6....>....7....>....8
*TITLE
$ cubit(а/Комп.прак/10/Задача/src/meshes/4v/test.k): 05/02/2021: 12
*PART
Block 1
$    pid     sid     mid   eosid    hgid    grav  adpopt    tmid
       1       1     100       0       0       0       0     100
*SECTION_SHELL
       1
$     t1      t2      t3      t4
       1       1       1       1

*MAT_ELASTIC
     100   7e-06  206800    0.29     0.0     0.0       0
*MAT_THERMAL_ISOTROPIC
     100     0.0     0.0     0.0     0.0     0.0
     500   0.045
*NODE
$    nid               x               y               z      tc      rc
       9               1               1               0       0       0
      11        0.818182               1               0       0       0
      53        0.819759        0.819575               0       0       0
      52               1        0.818182               0       0       0
      12        0.636364               1               0       0       0
      54        0.640225        0.820658               0       0       0
      13        0.454545               1               0       0       0
      55        0.464317        0.822984               0       0       0
      14        0.272727               1               0       0       0
      56        0.292858        0.817917               0       0       0
      15       0.0909091               1               0       0       0
     116       0.0944848        0.751085               0       0       0
      16      -0.0909091               1               0       0       0
     115       -0.119749          0.8134               0       0       0
      17       -0.272727               1               0       0       0
     134       -0.283954        0.846024               0       0       0
      18       -0.454545               1               0       0       0
      58       -0.442642        0.836665               0       0       0
      19       -0.636364               1               0       0       0
      59       -0.620671        0.821972               0       0       0
$ ... 114 like lines cut
$
$...>....1....>....2....>....3....>....4....>....5....>....6....>....7....>....8
$    eid     pid      n1      n2      n3      n4      n5      n6      n7      n8
*ELEMENT_SHELL
       1       1       9      11      53      52
       2       1      11      12      54      53
       3       1      12      13      55      54
       4       1      13      14      56      55
       5       1      14      15     116      56
       6       1      15      16     115     116
       7       1      16      17     134     115
       8       1      17      18      58     134
       9       1      18      19      59      58
      10       1      19      20      60      59
      11       1      20      10      22      60
      12       1      21      33      61      31
      13       1      33      34      62      61
      14       1      34      35      63      62
      15       1      35      36      64      63
      16       1      36      37     101      64
      17       1      37      38     100     101
      18       1      38      39      65     100
      19       1      39      40      66      65
      20       1      40      41      67      66
$ ... 88 like lines cut
*END
